Info: SIMULATION PARAMETERS:
Info: TIMESTEP               2
Info: NUMBER OF STEPS        0
Info: STEPS PER CYCLE        10
Info: PERIODIC CELL BASIS 1  150 0 0
Info: PERIODIC CELL BASIS 2  0 150 0
Info: PERIODIC CELL BASIS 3  0 0 150
Info: PERIODIC CELL CENTER   0 0 0
Info: WRAPPING WATERS AROUND PERIODIC BOUNDARIES ON OUTPUT.
Info: WRAPPING ALL CLUSTERS AROUND PERIODIC BOUNDARIES ON OUTPUT.
Info: FIRST LDB TIMESTEP     50
Info: LAST LDB TIMESTEP     -1
Info: HOM BACKGROUND SCALING 1
Info: PME BACKGROUND SCALING 1
Info: MIN ATOMS PER PATCH    40
Info: INITIAL TEMPERATURE    300
Info: CENTER OF MASS MOVING INITIALLY? NO
Info: REMOVING CENTER OF MASS DRIFT DURING SIMULATION
Info: DIELECTRIC             1
Info: EXCLUDE                SCALED ONE-FOUR
Info: 1-4 ELECTROSTATICS SCALED BY 1
Info: MODIFIED 1-4 VDW PARAMETERS WILL BE USED
Info: DCD FILENAME           MDequil.dcd
Info: DCD FREQUENCY          500
Info: DCD FIRST STEP         500
Info: DCD FILE WILL CONTAIN UNIT CELL DATA
Info: XST FILENAME           MDequil.xst
Info: XST FREQUENCY          500
Info: NO VELOCITY DCD OUTPUT
Info: NO FORCE DCD OUTPUT
Info: OUTPUT FILENAME        MDequil
Info: BINARY OUTPUT FILES WILL BE USED
Info: RESTART FILENAME       MDequil.restart
Info: RESTART FREQUENCY      5000
Info: BINARY RESTART FILES WILL BE USED
Info: SWITCHING ACTIVE
Info: SWITCHING ON           10
Info: SWITCHING OFF          12
Info: PAIRLIST DISTANCE      14
Info: PAIRLIST SHRINK RATE   0.01
Info: PAIRLIST GROW RATE     0.01
Info: PAIRLIST TRIGGER       0.3
Info: PAIRLISTS PER CYCLE    2
Info: PAIRLISTS ENABLED
Info: MARGIN                 0
Info: HYDROGEN GROUP CUTOFF  2.5
Info: PATCH DIMENSION        16.5
Info: ENERGY OUTPUT STEPS    500
Info: CROSSTERM ENERGY INCLUDED IN DIHEDRAL
Info: TIMING OUTPUT STEPS    5000
Info: PRESSURE OUTPUT STEPS  500
Info: LANGEVIN DYNAMICS ACTIVE
Info: LANGEVIN TEMPERATURE   300
Info: LANGEVIN USING BBK INTEGRATOR
Info: LANGEVIN DAMPING COEFFICIENT IS 1 INVERSE PS
Info: LANGEVIN DYNAMICS NOT APPLIED TO HYDROGENS
Info: PARTICLE MESH EWALD (PME) ACTIVE
Info: PME TOLERANCE               1e-06
Info: PME EWALD COEFFICIENT       0.257952
Info: PME INTERPOLATION ORDER     4
Info: PME GRID DIMENSIONS         160 160 160
Info: PME MAXIMUM GRID SPACING    1
Info: FULL ELECTROSTATIC EVALUATION FREQUENCY      2
Info: USING VERLET I (r-RESPA) MTS SCHEME.
Info: C1 SPLITTING OF LONG RANGE ELECTROSTATICS
Info: PLACING ATOMS IN PATCHES BY HYDROGEN GROUPS
Info: RIGID BONDS TO HYDROGEN : ALL
Info:         ERROR TOLERANCE : 1e-08
Info:          MAX ITERATIONS : 100
Info: RIGID WATER USING SETTLE ALGORITHM
Info: RANDOM NUMBER SEED     1718375581
Info: USE HYDROGEN BONDS?    NO
Info: COORDINATE PDB         ../input/system.pdb
Info: STRUCTURE FILE         ../input/system.psf
Info: PARAMETER file: CHARMM format!
Info: PARAMETERS             ../input/par_all36m_prot.inp
Info: PARAMETERS             ../input/par_water_ions.inp
Info: USING ARITHMETIC MEAN TO COMBINE L-J SIGMA PARAMETERS
Info: SUMMARY OF PARAMETERS:
Info: 135 BONDS
Info: 365 ANGLES
Info: 706 DIHEDRAL
Info: 35 IMPROPER
Info: 6 CROSSTERM
Info: 68 VDW
Info: 3 VDW_PAIRS
Info: 0 NBTHOLE_PAIRS
Info: STRUCTURE SUMMARY:
Info: 78060 ATOMS
Info: 58410 BONDS
Info: 53718 ANGLES
Info: 49686 DIHEDRALS
Info: 3142 IMPROPERS
Info: 1162 CROSSTERMS
Info: 0 EXCLUSIONS
Info: 68754 RIGID BONDS
Info: 165426 DEGREES OF FREEDOM
Info: 29180 HYDROGEN GROUPS
Info: 4 ATOMS IN LARGEST HYDROGEN GROUP
Info: 29180 MIGRATION GROUPS
Info: 4 ATOMS IN LARGEST MIGRATION GROUP
Info: TOTAL MASS = 490862 amu
Info: TOTAL CHARGE = -34 e
Info: MASS DENSITY = 0.241515 g/cm^3
Info: ATOM DENSITY = 0.0231289 atoms/A^3
Info: ADDED 161356 IMPLICIT EXCLUSIONS
Info: NONBONDED TABLE R-SQUARED SPACING: 0.0625
Info: NONBONDED TABLE SIZE: 769 POINTS
Info: REMOVING COM VELOCITY 0.00659825 -0.0358458 0.00988843
TCL: Minimizing for 5000 steps
ETITLE: TS BOND ANGLE DIHED IMPRP ELECT VDW BOUNDARY MISC KINETIC TOTAL TEMP POTENTIAL TOTAL3 TEMPAVG PRESSURE GPRESSURE VOLUME PRESSAVG GPRESSAVG
ENERGY: 0 2416.6839 3871.7167 11822.5423 71.1436 -202627.0870 20089.5616 0.0000 0.0000 0.0000 -164355.4390 0.0000 -164355.4390 -164355.4390 0.0000 4045.8719 -1661.8179 3375000.0000 4045.8719 -1661.8179
ENERGY: 1000 1165.9753 3663.0665 10139.5510 168.1762 -287468.1165 20940.8812 0.0000 0.0000 0.0000 -251390.4663 0.0000 -251390.4663 -251390.4663 0.0000 3392.9865 -1015.0488 3375000.0000 3392.9865 -1015.0488
ENERGY: 2000 1125.3831 3651.3322 9988.1209 153.6867 -305491.3491 27618.3796 0.0000 0.0000 0.0000 -262954.4465 0.0000 -262954.4465 -262954.4465 0.0000 4100.1020 -594.4012 3375000.0000 4100.1020 -594.4012
ENERGY: 3000 1094.5240 3608.5455 9970.4255 155.2011 -311157.3545 29503.2355 0.0000 0.0000 0.0000 -266825.4228 0.0000 -266825.4228 -266825.4228 0.0000 4358.9688 -393.3629 3375000.0000 4358.9688 -393.3629
ENERGY: 4000 1071.6876 3585.7548 10000.1149 157.2618 -314103.0256 30524.2609 0.0000 0.0000 0.0000 -268763.9457 0.0000 -268763.9457 -268763.9457 0.0000 4535.9305 -259.5090 3375000.0000 4535.9305 -259.5090
ENERGY: 5000 1058.3556 3584.3898 10016.2060 156.7463 -315674.5098 31081.4799 0.0000 0.0000 0.0000 -269777.3321 0.0000 -269777.3321 -269777.3321 0.0000 4642.3560 -172.3111 3375000.0000 4642.3560 -172.3111
TCL: Running for 500000 steps
ETITLE: TS BOND ANGLE DIHED IMPRP ELECT VDW BOUNDARY MISC KINETIC TOTAL TEMP POTENTIAL TOTAL3 TEMPAVG PRESSURE GPRESSURE VOLUME PRESSAVG GPRESSAVG
ENERGY: 5000 1058.3556 3584.3898 10016.2060 156.7463 -315674.5098 31081.4799 0.0000 0.0000 0.0000 -269777.3321 0.0000 -269777.3321 -269779.1532 0.0000 -376.6328 -368.6600 3375000.0000 -376.6328 -368.6600
ENERGY: 92500 3777.1572 10801.3238 11199.3495 638.9482 -256758.1189 14998.2163 0.0000 0.0000 48931.1637 -166411.9602 297.6954 -215343.1238 -166173.5121 298.8169 -30.7060 -25.6784 3375000.0000 -22.4924 -22.5121
ENERGY: 179500 3755.2377 10669.4480 11187.6180 637.7629 -256045.3840 14676.6637 0.0000 0.0000 48974.7051 -166143.9487 297.9603 -215118.6538 -165901.9947 299.6529 -65.8559 -61.2305 3375000.0000 -32.6633 -32.6553
ENERGY: 267000 3861.2340 10708.6146 11222.5752 624.8992 -257159.5752 14943.2382 0.0000 0.0000 49076.6782 -166722.3358 298.5807 -215799.0140 -166491.7060 298.9895 -81.4500 -75.6367 3375000.0000 -24.1567 -24.1524
ENERGY: 354000 3690.9390 10556.1495 11158.8649 660.4982 -257008.6354 15014.9475 0.0000 0.0000 49149.3227 -166777.9136 299.0227 -215927.2363 -166543.8688 298.7578 -24.1938 -18.5384 3375000.0000 -30.2160 -30.1965
ENERGY: 441500 3730.6632 10627.1770 11240.1360 627.3001 -256573.6557 14633.9859 0.0000 0.0000 49030.0957 -166684.2980 298.2973 -215714.3937 -166439.6779 299.6875 -66.4229 -61.1943 3375000.0000 -13.0592 -13.0690
