Info: SIMULATION PARAMETERS:
Info: TIMESTEP               2
Info: NUMBER OF STEPS        0
Info: STEPS PER CYCLE        10
Info: PERIODIC CELL BASIS 1  150 0 0
Info: PERIODIC CELL BASIS 2  0 150 0
Info: PERIODIC CELL BASIS 3  0 0 150
Info: PERIODIC CELL CENTER   0 0 0
Info: WRAPPING WATERS AROUND PERIODIC BOUNDARIES ON OUTPUT.
Info: WRAPPING ALL CLUSTERS AROUND PERIODIC BOUNDARIES ON OUTPUT.
Info: FIRST LDB TIMESTEP     50
Info: LAST LDB TIMESTEP     -1
Info: HOM BACKGROUND SCALING 1
Info: PME BACKGROUND SCALING 1
Info: MIN ATOMS PER PATCH    40
Info: VELOCITY FILE          ../equilibration_1.2_nm/MD.restart.vel
Info: CENTER OF MASS MOVING INITIALLY? NO
Info: REMOVING CENTER OF MASS DRIFT DURING SIMULATION
Info: DIELECTRIC             1
Info: EXCLUDE                SCALED ONE-FOUR
Info: 1-4 ELECTROSTATICS SCALED BY 1
Info: MODIFIED 1-4 VDW PARAMETERS WILL BE USED
Info: DCD FILENAME           MD2.dcd
Info: DCD FREQUENCY          500
Info: DCD FIRST STEP         500
Info: DCD FILE WILL CONTAIN UNIT CELL DATA
Info: XST FILENAME           MD2.xst
Info: XST FREQUENCY          500
Info: NO VELOCITY DCD OUTPUT
Info: NO FORCE DCD OUTPUT
Info: OUTPUT FILENAME        MD2
Info: BINARY OUTPUT FILES WILL BE USED
Info: RESTART FILENAME       MD2.restart
Info: RESTART FREQUENCY      5000
Info: BINARY RESTART FILES WILL BE USED
Info: SWITCHING ACTIVE
Info: SWITCHING ON           10
Info: SWITCHING OFF          12
Info: PAIRLIST DISTANCE      14
Info: PAIRLIST SHRINK RATE   0.01
Info: PAIRLIST GROW RATE     0.01
Info: PAIRLIST TRIGGER       0.3
Info: PAIRLISTS PER CYCLE    2
Info: PAIRLISTS ENABLED
Info: MARGIN                 0
Info: HYDROGEN GROUP CUTOFF  2.5
Info: PATCH DIMENSION        16.5
Info: ENERGY OUTPUT STEPS    500
Info: CROSSTERM ENERGY INCLUDED IN DIHEDRAL
Info: TIMING OUTPUT STEPS    5000
Info: PRESSURE OUTPUT STEPS  500
Info: LANGEVIN DYNAMICS ACTIVE
Info: LANGEVIN TEMPERATURE   300
Info: LANGEVIN USING BBK INTEGRATOR
Info: LANGEVIN DAMPING COEFFICIENT IS 1 INVERSE PS
Info: LANGEVIN DYNAMICS NOT APPLIED TO HYDROGENS
Info: PARTICLE MESH EWALD (PME) ACTIVE
Info: PME TOLERANCE               1e-06
Info: PME EWALD COEFFICIENT       0.257952
Info: PME INTERPOLATION ORDER     4
Info: PME GRID DIMENSIONS         160 160 160
Info: PME MAXIMUM GRID SPACING    1
Info: FULL ELECTROSTATIC EVALUATION FREQUENCY      2
Info: USING VERLET I (r-RESPA) MTS SCHEME.
Info: C1 SPLITTING OF LONG RANGE ELECTROSTATICS
Info: PLACING ATOMS IN PATCHES BY HYDROGEN GROUPS
Info: RIGID BONDS TO HYDROGEN : ALL
Info:         ERROR TOLERANCE : 1e-08
Info:          MAX ITERATIONS : 100
Info: RIGID WATER USING SETTLE ALGORITHM
Info: RANDOM NUMBER SEED     1718570108
Info: USE HYDROGEN BONDS?    NO
Info: COORDINATE PDB         ../input/system.pdb
Info: STRUCTURE FILE         ../input/system.psf
Info: PARAMETER file: CHARMM format!
Info: PARAMETERS             ../input/par_all36m_prot.inp
Info: PARAMETERS             ../input/par_water_ions.inp
Info: USING ARITHMETIC MEAN TO COMBINE L-J SIGMA PARAMETERS
Info: BINARY COORDINATES     ../equilibration_1.2_nm/MD.restart.coor
Info: SUMMARY OF PARAMETERS:
Info: 135 BONDS
Info: 365 ANGLES
Info: 706 DIHEDRAL
Info: 35 IMPROPER
Info: 6 CROSSTERM
Info: 68 VDW
Info: 3 VDW_PAIRS
Info: 0 NBTHOLE_PAIRS
Info: STRUCTURE SUMMARY:
Info: 78060 ATOMS
Info: 58410 BONDS
Info: 53718 ANGLES
Info: 49686 DIHEDRALS
Info: 3142 IMPROPERS
Info: 1162 CROSSTERMS
Info: 0 EXCLUSIONS
Info: 68754 RIGID BONDS
Info: 165426 DEGREES OF FREEDOM
Info: 29180 HYDROGEN GROUPS
Info: 4 ATOMS IN LARGEST HYDROGEN GROUP
Info: 29180 MIGRATION GROUPS
Info: 4 ATOMS IN LARGEST MIGRATION GROUP
Info: TOTAL MASS = 490862 amu
Info: TOTAL CHARGE = -34 e
Info: MASS DENSITY = 0.241515 g/cm^3
Info: ATOM DENSITY = 0.0231289 atoms/A^3
Info: ADDED 161356 IMPLICIT EXCLUSIONS
Info: NONBONDED TABLE R-SQUARED SPACING: 0.0625
Info: NONBONDED TABLE SIZE: 769 POINTS
Info: REMOVING COM VELOCITY -0.000136587 -0.000993229 0.000157485
TCL: Running for 175000 steps
ETITLE: TS BOND ANGLE DIHED IMPRP ELECT VDW BOUNDARY MISC KINETIC TOTAL TEMP POTENTIAL TOTAL3 TEMPAVG PRESSURE GPRESSURE VOLUME PRESSAVG GPRESSAVG
ENERGY: 0 3787.8228 10634.9010 11128.7594 666.4395 -256750.0703 14892.7213 0.0000 0.0000 49112.4758 -166526.9506 298.7985 -215639.4263 -166285.6155 298.7985 -37.7644 -33.3990 3375000.0000 -37.7644 -33.3990
ENERGY: 35000 3845.8936 10716.0051 11154.9646 663.2891 -257174.6153 14877.5523 0.0000 0.0000 49386.4359 -166530.4749 300.4653 -215916.9108 -166283.6527 300.4634 -28.4355 -24.0086 3375000.0000 -22.6961 -22.7087
ENERGY: 70000 3847.6522 10648.4624 11058.8841 593.1956 -257308.9516 14912.1199 0.0000 0.0000 49159.4620 -167089.1754 299.0844 -216248.6375 -166843.4416 298.8436 -44.7021 -39.8324 3375000.0000 -8.6409 -8.6343
ENERGY: 105000 3774.6102 10516.8411 11089.4104 623.4135 -257555.9404 15364.1653 0.0000 0.0000 49361.1427 -166826.3572 300.3114 -216187.4999 -166580.1482 299.1567 -3.2150 2.3410 3375000.0000 -12.2421 -12.2489
ENERGY: 140000 3785.0603 10648.1110 11157.7161 614.0729 -257402.3572 14897.2735 0.0000 0.0000 49160.2989 -167139.8246 299.0895 -216300.1234 -166906.2707 299.0181 -36.5970 -30.9736 3375000.0000 -28.7658 -28.7901
ENERGY: 175000 3860.1358 10650.5477 11035.9131 611.9499 -257291.9660 15140.0634 0.0000 0.0000 49175.4197 -166817.9364 299.1815 -215993.3561 -166584.0578 299.8435 -11.3260 -5.7504 3375000.0000 -32.4820 -32.4883
