Info: SIMULATION PARAMETERS:
Info: TIMESTEP               2
Info: NUMBER OF STEPS        0
Info: STEPS PER CYCLE        10
Info: PERIODIC CELL BASIS 1  150 0 0
Info: PERIODIC CELL BASIS 2  0 150 0
Info: PERIODIC CELL BASIS 3  0 0 150
Info: PERIODIC CELL CENTER   0 0 0
Info: WRAPPING WATERS AROUND PERIODIC BOUNDARIES ON OUTPUT.
Info: WRAPPING ALL CLUSTERS AROUND PERIODIC BOUNDARIES ON OUTPUT.
Info: FIRST LDB TIMESTEP     50
Info: LAST LDB TIMESTEP     -1
Info: HOM BACKGROUND SCALING 1
Info: PME BACKGROUND SCALING 1
Info: MIN ATOMS PER PATCH    40
Info: VELOCITY FILE          ../equilibration_1_nm/MDequil.restart.vel
Info: CENTER OF MASS MOVING INITIALLY? NO
Info: REMOVING CENTER OF MASS DRIFT DURING SIMULATION
Info: DIELECTRIC             1
Info: EXCLUDE                SCALED ONE-FOUR
Info: 1-4 ELECTROSTATICS SCALED BY 1
Info: MODIFIED 1-4 VDW PARAMETERS WILL BE USED
Info: DCD FILENAME           MD.dcd
Info: DCD FREQUENCY          1000
Info: DCD FIRST STEP         1000
Info: DCD FILE WILL CONTAIN UNIT CELL DATA
Info: XST FILENAME           MD.xst
Info: XST FREQUENCY          1000
Info: NO VELOCITY DCD OUTPUT
Info: NO FORCE DCD OUTPUT
Info: OUTPUT FILENAME        MD
Info: BINARY OUTPUT FILES WILL BE USED
Info: RESTART FILENAME       MD.restart
Info: RESTART FREQUENCY      10000
Info: BINARY RESTART FILES WILL BE USED
Info: SWITCHING ACTIVE
Info: SWITCHING ON           10
Info: SWITCHING OFF          12
Info: PAIRLIST DISTANCE      14
Info: PAIRLIST SHRINK RATE   0.01
Info: PAIRLIST GROW RATE     0.01
Info: PAIRLIST TRIGGER       0.3
Info: PAIRLISTS PER CYCLE    2
Info: PAIRLISTS ENABLED
Info: MARGIN                 0
Info: HYDROGEN GROUP CUTOFF  2.5
Info: PATCH DIMENSION        16.5
Info: ENERGY OUTPUT STEPS    1000
Info: CROSSTERM ENERGY INCLUDED IN DIHEDRAL
Info: TIMING OUTPUT STEPS    10000
Info: PRESSURE OUTPUT STEPS  1000
Info: LANGEVIN DYNAMICS ACTIVE
Info: LANGEVIN TEMPERATURE   300
Info: LANGEVIN USING BBK INTEGRATOR
Info: LANGEVIN DAMPING COEFFICIENT IS 1 INVERSE PS
Info: LANGEVIN DYNAMICS NOT APPLIED TO HYDROGENS
Info: PARTICLE MESH EWALD (PME) ACTIVE
Info: PME TOLERANCE               1e-06
Info: PME EWALD COEFFICIENT       0.257952
Info: PME INTERPOLATION ORDER     4
Info: PME GRID DIMENSIONS         160 160 160
Info: PME MAXIMUM GRID SPACING    1
Info: FULL ELECTROSTATIC EVALUATION FREQUENCY      2
Info: USING VERLET I (r-RESPA) MTS SCHEME.
Info: C1 SPLITTING OF LONG RANGE ELECTROSTATICS
Info: PLACING ATOMS IN PATCHES BY HYDROGEN GROUPS
Info: RIGID BONDS TO HYDROGEN : ALL
Info:         ERROR TOLERANCE : 1e-08
Info:          MAX ITERATIONS : 100
Info: RIGID WATER USING SETTLE ALGORITHM
Info: RANDOM NUMBER SEED     1718535378
Info: USE HYDROGEN BONDS?    NO
Info: COORDINATE PDB         ../input/system.pdb
Info: STRUCTURE FILE         ../input/system.psf
Info: PARAMETER file: CHARMM format!
Info: PARAMETERS             ../input/par_all36m_prot.inp
Info: PARAMETERS             ../input/par_water_ions.inp
Info: USING ARITHMETIC MEAN TO COMBINE L-J SIGMA PARAMETERS
Info: BINARY COORDINATES     ../equilibration_1_nm/MDequil.restart.coor
Info: SUMMARY OF PARAMETERS:
Info: 135 BONDS
Info: 365 ANGLES
Info: 706 DIHEDRAL
Info: 35 IMPROPER
Info: 6 CROSSTERM
Info: 68 VDW
Info: 3 VDW_PAIRS
Info: 0 NBTHOLE_PAIRS
Info: STRUCTURE SUMMARY:
Info: 78060 ATOMS
Info: 58410 BONDS
Info: 53718 ANGLES
Info: 49686 DIHEDRALS
Info: 3142 IMPROPERS
Info: 1162 CROSSTERMS
Info: 0 EXCLUSIONS
Info: 68754 RIGID BONDS
Info: 165426 DEGREES OF FREEDOM
Info: 29180 HYDROGEN GROUPS
Info: 4 ATOMS IN LARGEST HYDROGEN GROUP
Info: 29180 MIGRATION GROUPS
Info: 4 ATOMS IN LARGEST MIGRATION GROUP
Info: TOTAL MASS = 490862 amu
Info: TOTAL CHARGE = -34 e
Info: MASS DENSITY = 0.241515 g/cm^3
Info: ATOM DENSITY = 0.0231289 atoms/A^3
Info: ADDED 161356 IMPLICIT EXCLUSIONS
Info: NONBONDED TABLE R-SQUARED SPACING: 0.0625
Info: NONBONDED TABLE SIZE: 769 POINTS
Info: REMOVING COM VELOCITY 0.00275118 0.00016215 0.0013423
TCL: Running for 310000 steps
ETITLE: TS BOND ANGLE DIHED IMPRP ELECT VDW BOUNDARY MISC KINETIC TOTAL TEMP POTENTIAL TOTAL3 TEMPAVG PRESSURE GPRESSURE VOLUME PRESSAVG GPRESSAVG
ENERGY: 0 3793.0333 10603.9014 11216.6979 619.8485 -257048.9997 15100.1844 0.0000 0.0000 49084.9868 -166630.3475 298.6313 -215715.3343 -166391.3488 298.6313 -6.6151 -1.1892 3375000.0000 -6.6151 -1.1892
ENERGY: 37000 3732.0308 10610.2497 11162.9846 617.8301 -257518.2163 15319.5568 0.0000 0.0000 49151.7982 -166923.7662 299.0378 -216075.5644 -166691.0404 299.0529 -16.0415 -10.7008 3375000.0000 -21.0259 -21.0417
ENERGY: 74000 3842.0964 10650.7216 11151.2299 615.4266 -257136.6225 14938.4240 0.0000 0.0000 49097.5912 -166841.1329 298.7080 -215938.7241 -166596.4274 298.8974 -58.1315 -52.7935 3375000.0000 -21.2483 -21.2480
ENERGY: 111000 3870.9940 10700.6828 11149.4298 667.4843 -257520.2308 15155.7255 0.0000 0.0000 49420.5387 -166555.3757 300.6728 -215975.9143 -166309.4236 299.5980 -38.3758 -33.1475 3375000.0000 -26.7711 -26.7631
ENERGY: 148000 3772.2455 10695.0628 11123.3709 621.8658 -257456.5713 15169.6071 0.0000 0.0000 49196.0410 -166878.3782 299.3069 -216074.4192 -166639.8957 299.3658 -14.5264 -9.5751 3375000.0000 -28.4202 -28.4224
ENERGY: 185000 3705.4035 10684.3207 11104.7738 630.4153 -257161.6570 15035.6830 0.0000 0.0000 49007.7195 -166993.3412 298.1612 -216001.0607 -166759.4424 299.3341 25.5585 30.0466 3375000.0000 -20.3852 -20.3814
